<?xml version="1.0" encoding="UTF-8"?>

<!-- generated on 2025-06-01 17:08:08 by Eclipse SUMO netedit Version 1.23.1
-->

<routes xmlns:xsi="http://www.w3.org/2001/XMLSchema-instance" xsi:noNamespaceSchemaLocation="http://sumo.dlr.de/xsd/routes_file.xsd">
    <!-- Vehicles, persons and containers (sorted by depart) -->
    <trip id="t_0" depart="0.00" from="-E3" to="-E1.46"/>
    <trip id="t_1" depart="1.00" from="-E2" to="-E1.46"/>
    <trip id="t_2" depart="2.00" from="-E1" to="-E1.46"/>
    <trip id="t_3" depart="3.00" from="E1" to="E10"/>
    <trip id="t_4" depart="4.00" from="E1" to="E2"/>
    <trip id="t_5" depart="5.00" from="-E1" to="E3"/>
</routes>
