<?xml version="1.0" encoding="UTF-8"?>

<!-- generated on 2025-06-01 17:23:56 by Eclipse SUMO netedit Version 1.23.1
<neteditConfiguration xmlns:xsi="http://www.w3.org/2001/XMLSchema-instance" xsi:noNamespaceSchemaLocation="http://sumo.dlr.de/xsd/neteditConfiguration.xsd">

    <input>
        <sumocfg-file value="C:\Users\User\ntu\IIV-Final\crossroads.sumocfg"/>
        <route-files value="C:\Users\User\ntu\IIV-Final\crossroads.rou.xml"/>
        <sumo-net-file value="C:\Users\User\ntu\IIV-Final\crossroads.net.xml"/>
    </input>

    <output>
        <output-file value="C:\Users\User\ntu\IIV-Final\crossroads.net.xml"/>
    </output>

    <processing>
        <geometry.min-radius.fix.railways value="false"/>
        <geometry.avoid-overlap value="false"/>
        <geometry.max-grade.fix value="false"/>
        <offset.disable-normalization value="true"/>
        <lefthand value="0"/>
    </processing>

    <junctions>
        <no-turnarounds value="true"/>
        <junctions.corner-detail value="5"/>
        <junctions.limit-turn-speed value="5.50"/>
        <rectangular-lane-cut value="0"/>
    </junctions>

    <pedestrian>
        <walkingareas value="0"/>
    </pedestrian>

    <netedit>
        <new-network value="false"/>
    </netedit>

</neteditConfiguration>
-->

<net version="1.20" junctionCornerDetail="5" limitTurnSpeed="5.50" avoidOverlap="0" xmlns:xsi="http://www.w3.org/2001/XMLSchema-instance" xsi:noNamespaceSchemaLocation="http://sumo.dlr.de/xsd/net_file.xsd">

    <location netOffset="0.00,0.00" convBoundary="-40.00,-40.00,40.00,40.00" origBoundary="-10000000000.00,-10000000000.00,10000000000.00,10000000000.00" projParameter="!"/>

    <edge id=":J_crossroads_0" function="internal">
        <lane id=":J_crossroads_0_0" index="0" speed="6.51" length="9.03" shape="-1.60,7.20 -1.95,4.75 -3.00,3.00 -4.75,1.95 -7.20,1.60"/>
    </edge>
    <edge id=":J_crossroads_1" function="internal">
        <lane id=":J_crossroads_1_0" index="0" speed="13.89" length="14.40" shape="-1.60,7.20 -1.60,-7.20"/>
    </edge>
    <edge id=":J_crossroads_2" function="internal">
        <lane id=":J_crossroads_2_0" index="0" speed="8.00" length="4.07" shape="-1.60,7.20 -1.05,3.35 -0.96,3.20"/>
    </edge>
    <edge id=":J_crossroads_12" function="internal">
        <lane id=":J_crossroads_12_0" index="0" speed="8.00" length="10.13" shape="-0.96,3.20 0.60,0.60 3.35,-1.05 7.20,-1.60"/>
    </edge>
    <edge id=":J_crossroads_3" function="internal">
        <lane id=":J_crossroads_3_0" index="0" speed="6.51" length="9.03" shape="7.20,1.60 4.75,1.95 3.00,3.00 1.95,4.75 1.60,7.20"/>
    </edge>
    <edge id=":J_crossroads_4" function="internal">
        <lane id=":J_crossroads_4_0" index="0" speed="13.89" length="14.40" shape="7.20,1.60 -7.20,1.60"/>
    </edge>
    <edge id=":J_crossroads_5" function="internal">
        <lane id=":J_crossroads_5_0" index="0" speed="8.00" length="14.19" shape="7.20,1.60 3.35,1.05 0.60,-0.60 -1.05,-3.35 -1.60,-7.20"/>
    </edge>
    <edge id=":J_crossroads_6" function="internal">
        <lane id=":J_crossroads_6_0" index="0" speed="6.51" length="9.03" shape="1.60,-7.20 1.95,-4.75 3.00,-3.00 4.75,-1.95 7.20,-1.60"/>
    </edge>
    <edge id=":J_crossroads_7" function="internal">
        <lane id=":J_crossroads_7_0" index="0" speed="13.89" length="14.40" shape="1.60,-7.20 1.60,7.20"/>
    </edge>
    <edge id=":J_crossroads_8" function="internal">
        <lane id=":J_crossroads_8_0" index="0" speed="8.00" length="4.07" shape="1.60,-7.20 1.05,-3.35 0.96,-3.20"/>
    </edge>
    <edge id=":J_crossroads_13" function="internal">
        <lane id=":J_crossroads_13_0" index="0" speed="8.00" length="10.13" shape="0.96,-3.20 -0.60,-0.60 -3.35,1.05 -7.20,1.60"/>
    </edge>
    <edge id=":J_crossroads_9" function="internal">
        <lane id=":J_crossroads_9_0" index="0" speed="6.51" length="9.03" shape="-7.20,-1.60 -4.75,-1.95 -3.00,-3.00 -1.95,-4.75 -1.60,-7.20"/>
    </edge>
    <edge id=":J_crossroads_10" function="internal">
        <lane id=":J_crossroads_10_0" index="0" speed="13.89" length="14.40" shape="-7.20,-1.60 7.20,-1.60"/>
    </edge>
    <edge id=":J_crossroads_11" function="internal">
        <lane id=":J_crossroads_11_0" index="0" speed="8.00" length="14.19" shape="-7.20,-1.60 -3.35,-1.05 -0.60,0.60 1.05,3.35 1.60,7.20"/>
    </edge>

    <edge id="-E1" from="J3" to="J_crossroads" priority="-1">
        <lane id="-E1_0" index="0" speed="13.89" length="32.80" shape="40.00,1.60 7.20,1.60"/>
    </edge>
    <edge id="-E1.46" from="J_crossroads" to="J2" priority="-1">
        <lane id="-E1.46_0" index="0" speed="13.89" length="32.80" shape="-7.20,1.60 -40.00,1.60"/>
    </edge>
    <edge id="-E2" from="J5" to="J_crossroads" priority="-1">
        <lane id="-E2_0" index="0" speed="13.89" length="32.80" shape="1.60,-40.00 1.60,-7.20"/>
    </edge>
    <edge id="-E3" from="J6" to="J_crossroads" priority="-1">
        <lane id="-E3_0" index="0" speed="13.89" length="32.80" shape="-1.60,40.00 -1.60,7.20"/>
    </edge>
    <edge id="E1" from="J2" to="J_crossroads" priority="-1">
        <lane id="E1_0" index="0" speed="13.89" length="32.80" shape="-40.00,-1.60 -7.20,-1.60"/>
    </edge>
    <edge id="E10" from="J_crossroads" to="J3" priority="-1">
        <lane id="E10_0" index="0" speed="13.89" length="32.80" shape="7.20,-1.60 40.00,-1.60"/>
    </edge>
    <edge id="E2" from="J_crossroads" to="J5" priority="-1">
        <lane id="E2_0" index="0" speed="13.89" length="32.80" shape="-1.60,-7.20 -1.60,-40.00"/>
    </edge>
    <edge id="E3" from="J_crossroads" to="J6" priority="-1">
        <lane id="E3_0" index="0" speed="13.89" length="32.80" shape="1.60,7.20 1.60,40.00"/>
    </edge>

    <junction id="J2" type="dead_end" x="-40.00" y="0.00" incLanes="-E1.46_0" intLanes="" shape="-40.00,0.00 -40.00,3.20 -40.00,0.00"/>
    <junction id="J3" type="dead_end" x="40.00" y="0.00" incLanes="E10_0" intLanes="" shape="40.00,0.00 40.00,-3.20 40.00,0.00"/>
    <junction id="J5" type="dead_end" x="0.00" y="-40.00" incLanes="E2_0" intLanes="" shape="0.00,-40.00 -3.20,-40.00 0.00,-40.00"/>
    <junction id="J6" type="dead_end" x="0.00" y="40.00" incLanes="E3_0" intLanes="" shape="0.00,40.00 3.20,40.00 0.00,40.00"/>
    <junction id="J_crossroads" type="priority" x="0.00" y="0.00" incLanes="-E3_0 -E1_0 -E2_0 E1_0" intLanes=":J_crossroads_0_0 :J_crossroads_1_0 :J_crossroads_12_0 :J_crossroads_3_0 :J_crossroads_4_0 :J_crossroads_5_0 :J_crossroads_6_0 :J_crossroads_7_0 :J_crossroads_13_0 :J_crossroads_9_0 :J_crossroads_10_0 :J_crossroads_11_0" shape="-3.20,7.20 3.20,7.20 3.64,4.98 4.20,4.20 4.98,3.64 5.98,3.31 7.20,3.20 7.20,-3.20 4.98,-3.64 4.20,-4.20 3.64,-4.98 3.31,-5.98 3.20,-7.20 -3.20,-7.20 -3.64,-4.98 -4.20,-4.20 -4.98,-3.64 -5.98,-3.31 -7.20,-3.20 -7.20,3.20 -4.98,3.64 -4.20,4.20 -3.64,4.98 -3.31,5.98">
        <request index="0"  response="000000000000" foes="000100010000" cont="0"/>
        <request index="1"  response="000000000000" foes="111100110000" cont="0"/>
        <request index="2"  response="000011000000" foes="110111110000" cont="1"/>
        <request index="3"  response="000010000000" foes="100010000000" cont="0"/>
        <request index="4"  response="000110000111" foes="100110000111" cont="0"/>
        <request index="5"  response="111110000110" foes="111110000110" cont="0"/>
        <request index="6"  response="000000000000" foes="010000000100" cont="0"/>
        <request index="7"  response="000000000000" foes="110000111100" cont="0"/>
        <request index="8"  response="000000000111" foes="110000110111" cont="1"/>
        <request index="9"  response="000000000010" foes="000000100010" cont="0"/>
        <request index="10" response="000111000110" foes="000111100110" cont="0"/>
        <request index="11" response="000110011110" foes="000110111110" cont="0"/>
    </junction>

    <junction id=":J_crossroads_12_0" type="internal" x="-0.96" y="3.20" incLanes=":J_crossroads_2_0 -E2_0" intLanes=":J_crossroads_4_0 :J_crossroads_5_0 :J_crossroads_6_0 :J_crossroads_7_0 :J_crossroads_10_0 :J_crossroads_11_0"/>
    <junction id=":J_crossroads_13_0" type="internal" x="0.96" y="-3.20" incLanes=":J_crossroads_8_0 -E3_0" intLanes=":J_crossroads_0_0 :J_crossroads_1_0 :J_crossroads_4_0 :J_crossroads_5_0 :J_crossroads_10_0 :J_crossroads_11_0"/>

    <connection from="-E1" to="E3" fromLane="0" toLane="0" via=":J_crossroads_3_0" dir="r" state="m"/>
    <connection from="-E1" to="-E1.46" fromLane="0" toLane="0" via=":J_crossroads_4_0" dir="s" state="m"/>
    <connection from="-E1" to="E2" fromLane="0" toLane="0" via=":J_crossroads_5_0" dir="l" state="m"/>
    <connection from="-E2" to="E10" fromLane="0" toLane="0" via=":J_crossroads_6_0" dir="r" state="M"/>
    <connection from="-E2" to="E3" fromLane="0" toLane="0" via=":J_crossroads_7_0" dir="s" state="M"/>
    <connection from="-E2" to="-E1.46" fromLane="0" toLane="0" via=":J_crossroads_8_0" dir="l" state="m"/>
    <connection from="-E3" to="-E1.46" fromLane="0" toLane="0" via=":J_crossroads_0_0" dir="r" state="M"/>
    <connection from="-E3" to="E2" fromLane="0" toLane="0" via=":J_crossroads_1_0" dir="s" state="M"/>
    <connection from="-E3" to="E10" fromLane="0" toLane="0" via=":J_crossroads_2_0" dir="l" state="m"/>
    <connection from="E1" to="E2" fromLane="0" toLane="0" via=":J_crossroads_9_0" dir="r" state="m"/>
    <connection from="E1" to="E10" fromLane="0" toLane="0" via=":J_crossroads_10_0" dir="s" state="m"/>
    <connection from="E1" to="E3" fromLane="0" toLane="0" via=":J_crossroads_11_0" dir="l" state="m"/>

    <connection from=":J_crossroads_0" to="-E1.46" fromLane="0" toLane="0" dir="r" state="M"/>
    <connection from=":J_crossroads_1" to="E2" fromLane="0" toLane="0" dir="s" state="M"/>
    <connection from=":J_crossroads_2" to="E10" fromLane="0" toLane="0" via=":J_crossroads_12_0" dir="l" state="m"/>
    <connection from=":J_crossroads_12" to="E10" fromLane="0" toLane="0" dir="l" state="M"/>
    <connection from=":J_crossroads_3" to="E3" fromLane="0" toLane="0" dir="r" state="M"/>
    <connection from=":J_crossroads_4" to="-E1.46" fromLane="0" toLane="0" dir="s" state="M"/>
    <connection from=":J_crossroads_5" to="E2" fromLane="0" toLane="0" dir="l" state="M"/>
    <connection from=":J_crossroads_6" to="E10" fromLane="0" toLane="0" dir="r" state="M"/>
    <connection from=":J_crossroads_7" to="E3" fromLane="0" toLane="0" dir="s" state="M"/>
    <connection from=":J_crossroads_8" to="-E1.46" fromLane="0" toLane="0" via=":J_crossroads_13_0" dir="l" state="m"/>
    <connection from=":J_crossroads_13" to="-E1.46" fromLane="0" toLane="0" dir="l" state="M"/>
    <connection from=":J_crossroads_9" to="E2" fromLane="0" toLane="0" dir="r" state="M"/>
    <connection from=":J_crossroads_10" to="E10" fromLane="0" toLane="0" dir="s" state="M"/>
    <connection from=":J_crossroads_11" to="E3" fromLane="0" toLane="0" dir="l" state="M"/>

</net>
