<?xml version="1.0" encoding="UTF-8"?>

<!-- generated on 2025-06-01 20:22:06 by Eclipse SUMO netedit Version v1_23_1+0308-0738807fd8c
-->

<routes xmlns:xsi="http://www.w3.org/2001/XMLSchema-instance" xsi:noNamespaceSchemaLocation="http://sumo.dlr.de/xsd/routes_file.xsd">
    <!-- Vehicles, persons and containers (sorted by depart) -->
    <trip id="t_0" depart="0.00" from="N_I" to="W_O"/>
    <trip id="t_1" depart="1.00" from="S_I" to="W_O"/>
    <trip id="t_2" depart="2.00" from="E_I" to="W_O"/>
    <trip id="t_3" depart="3.00" from="W_I" to="E_O"/>
    <trip id="t_4" depart="4.00" from="W_I" to="S_O"/>
    <trip id="t_5" depart="5.00" from="E_I" to="N_O"/>
</routes>
