<configuration>
    <input>
        <net-file value="exp05.net.xml"/>
        <route-files value="exp05.rou.xml"/>  <!-- change to exp05 for Exp 5 -->
    </input>
    <time>
        <begin value="0"/>
        <end value="60"/>
    </time>
</configuration>
