<?xml version="1.0" encoding="UTF-8"?>
<routes>
    <!-- vehicle types -->
    <vType id="humanSlow" accel="2.0" decel="4.5" sigma="0.5"
           length="5" maxSpeed="20" color="1,0,0"/>   <!-- 20 m/s  (72 km/h) -->
    <vType id="cav"       accel="2.5" decel="4.5" sigma="0"
           length="5" maxSpeed="33.33" color="0,1,0"/>

    <route id="main" edges="A0B0"/>

    <!-- leader in right lane, 50 m ahead at 20 m/s -->
    <vehicle id="slow0" type="humanSlow" route="main"
             depart="0" departLane="0" departPos="50"/>

    <!-- controlled vehicle, lane 0, 0 m, 30 m/s -->
    <vehicle id="ego0"  type="cav"       route="main"
             depart="0" departLane="0" departPos="0" speedFactor="1.0"/>
</routes>
